FoamFile
{
    version     2.0;
    format      ascii;
    class       dictionary;
    location    "system";
    object      decomposeParDict;
}

numberOfSubdomains 128;
method simple;

simpleCoeffs
{
    n           (128 1 1);  // X-direction decomposition
}

distributed false;
