FoamFile
{
    version     2.0;
    format      ascii;
    class       dictionary;
    location    "system";
    object      snappyHexMeshDict;
}

castellatedMesh true;
snap            true;
addLayers       false;

geometry
{
    buildings.stl
    {
        type triSurfaceMesh;
        name buildings;
    }
}

castellatedMeshControls
{
    maxLocalCells       2500000;
    maxGlobalCells      10000000;
    minRefinementCells  10;
    maxLoadUnbalance    0.10;
    nCellsBetweenLevels 3;
    resolveFeatureAngle 30;

    features ();

    refinementSurfaces
    {
        buildings
        {
            level (2 3);
            patchInfo
            {
                type wall;
            }
        }
    }

    refinementRegions
    {
        buildings
        {
            mode distance;
            levels ((10 2));
        }
    }

    // Point inside the fluid domain, offset from cell faces
    locationInMesh (-1490 7 50);

    allowFreeStandingZoneFaces true;
}

snapControls
{
    nSmoothPatch        3;
    tolerance           2.0;
    nSolveIter          30;
    nRelaxIter          5;
    nFeatureSnapIter    10;
    implicitFeatureSnap false;
    explicitFeatureSnap false;
    multiRegionFeatureSnap false;
}

addLayersControls
{
    relativeSizes true;
    layers {}
    expansionRatio      1.2;
    finalLayerThickness 0.3;
    minThickness        0.1;
    nGrow               0;
    featureAngle        60;
    nRelaxIter          3;
    nSmoothSurfaceNormals 1;
    nSmoothNormals      3;
    nSmoothThickness    10;
    maxFaceThicknessRatio 0.5;
    maxThicknessToMedialRatio 0.3;
    minMedialAxisAngle  90;
    nBufferCellsNoExtrude 0;
    nLayerIter          50;
}

meshQualityControls
{
    #include "meshQualityDict"
    nSmoothScale        4;
    errorReduction      0.75;
}

writeFlags
(
    scalarLevels
    layerSets
    layerFields
);

mergeTolerance 1e-6;
